PyQGIS/prompts.txt
Necesito ayuda con unos scrips en pyqgis. te pasaré 2 scripts, y luego te preguntaré por el segundo. Espera por favor hasta que te pase los dos.


Necesito que mientras se agregan l�neas, dentro de la funci�n de evento: canvasMoveEvent, y mientras se cumplan las siguientes condiciones:
estado_seleccion_linea == "N1_Selec" y estado_flujo_trabajo == "linea", 
se cree una linea auxiliar entre el punto ya elegido self.start_node, y la posici�n actual del cursor (event.mapPoint()).
Necesito que la soluci�n cree y utilice una capa temporal en memoria, para proyectar sobre el mapa esta l�nea din�micamente hasta el segundo clic: 
estado_seleccion_linea == "Selec_None", y en ese momento, elimine la capa temporal.

Base>create_logic_3.3>

los cambios ser�an los siguientes: La capa temporal se crea al ejecutar el script, pero deber�a solo crearse al momento del movimiento, � si fuera m�s simple de hacer, concervando la capa creada como est�, pero haciendola invisible en el panel de capas, ya que es una capa auxiliar o temporal.

Se est� creando bien, solo debe eliminarse correctamente al terminar la l�nea...

**create_logic_3.5**

> Estable, crea linea auxiliar de puntos y orden� un poco el c�digo


**create_logic_3.8> (movimiento de objetos asociados)**

Ahora necesito que crees una función con el nombre "redraw_associated_objects" para lograr lo siguiente:
1) Mover las coordenadas del extremo de las líneas asociadas al nodo que se mueve, (las lìneas, de la capa de líneas, que tienen alguno de sus atributos "start_node", ó, "end_node", coincidiendo con el atributo "id" del nodo que se está moviendo).
2) Mover las coordenadas del generador asociado al nodo que se mueve (los generadores, de la capa de generadores, que tienen su atributo "start_node" coincidiendo con el atributo "id" del nodo que se está moviendo).
Esta funciòn debeía ser llamada justo donde está la etiqueta "[Aqui realizar el movimiento objetos asociados]"

**create_logic_3.9**

>Hay manera de optimizar el movimiento de los objetos asociados de manera de solo buscar los objetos al inicio, una vez, hasta que termine la operaciòn de movimiento.

**create_geometries_2.3 (para agregar cargas)**

Necesito agregar, con exactamente la misma lógica que se utiliza para la capa de generadores, una nueva capa, ahora para las "cargas"

Buenos dias, estoy trabajando en una interfaz gráfica personalizada en qgis para editar una red eléctrica.

**create_geometries_2.6 (para agregar cargas)**
Necesito modificar la simbología de la capa de transformadores.
Sería posible que la simbología esté compuesta por varias figuras?
o sea, me gustaría que la simbología de transformadores, además del triangulo, tenga una pequeña línea vertical, y dezplazar el triangulo hacia arriba.

** Comienzo a integrar opendss **************

Estoy diseñando un software gis para el manejo de redes electricas de distribución, lo estoy haciendo dentro del software qgis mediante pyqgis y la api de QT. he desarrollado una interfaz gráfica personalizada para la edición de la red eléctrica siguiendo la estructura de todos los objetos eléctricos de opendss. ahora quisiera integrar opendss de manera de poder enviar los datos de toda la red eléctrica, topología, elementos y parámetros de elementos hacia opendss para luego poder realizar calculos y análisis electricos, y luego poder devolver esos datos de vuelta a la interfaz qgis. 
Ahora quisiera analizar la mejor alternativa de integración:
1) OpenDSS.exe
2) COM server (OpenDSSEngine.DLL)
3) OpenDSSDirect.DLL
4) OpenDSS-X

No comprendo si esta última es una alternativa distinta a las anteriores o no.
Podrias ayudarme?
** (comienzo con opendss) **

-- Instalación de OpenDSS-X (OpenDSSDirect.py)
1-En la consola de PyQgis: Averiguar la ruta del interprete:
import sys
print(sys.executable)
2- En CMD -> posicionarse en la ruta y correr:
python.exe -m pip install OpenDSSDirect.py

**********************
Podrías ayudarme con lo siguiente?: necesito programar la función import_dss para que, utilizando la librería pypiwin32, 
importe desde opendss todos los nodos y líneas para agregar a las capas correspondientes en qgis.
**********************
Te pasaré un script, necesito mostrar una barra de progreso de la importación en la función import_dss, 
pero quiero que lo hagas de la misma forma en que se realiza en un segundo script que tambien te pasaré.
 Espera por favor a que te pase los dos scripts para contestar.
**********************
Podrias agregar una barra de progreso de la importación en la función import_dss?
**********************
Ahora necesito modificar la función import_dss() para que, inicialmente abra un dialogo 
de explorador de archivos, para seleccionar el archivo .dss a importar, obteniendo el dss_path, 
en lugar del actual archivo "Master_Caso_Base.dss"-> create_logic_5.6
**********************
Necesito construir la función find_nearest_nodes_index, la cual, similarmente a find_nearest_node_index, 
encuentre el nodo más cercano, sin embargo, en el caso de que los nodos más
 cercanos que encuentre, estén en las mismas coordenadas, se abra un combo de selección 
 mostrando ambos nodos, para que el usuario pueda elegir uno, y la función devolver esa elección.
 ******************
 La ultima implementación fue la inclusión del elemento transformador, el cual se inserta asociandolo
  al primer nodo, y al insertarlo se crea un segundo nodo para asociar la salida del transformador.
   Luego se implementó la conexión de líneas en este segundo nodo, que coincide en sus coordenadas 
   con el primero. Con lo cual, si se quiere realizar la operación de mover el nodo correspondiente
    al transformador, se deben mover todos los elementos asociados directamente a ese nodo, pero 
    tambien el transformador y so nodo de salida, a su vez con todos sus elementos asociados.
    El problema es que al mover el nodo asociado al transformador, ya no se mueven los extremos de línea
     asociados al primer nodo, pero si se pueven las líneas asociadas al nodo de salida, tambien 
     el transformador se mueve correctamente.
*********************
En la importación de elementos dss he notado que se excluyen los nodos que no traen coordenadas, 
sin embargo, esos nodos sí hay que importarlos ya que servirán luego para conectar otros elementos.
 por ejemplo, hay nodos que no tienen coordenadas, y que pertenecen a la salida de los transformadores,
  con lo cual, para asignarle coordenadas a ese nodo al momento de la importación, al detectar un nodo
   que no tiene coordenadas, se podría buscar si pertenece a un transformador, y asignarle la coordenada
    del nodo de entrada al transformador. Podrías implementar esto en la importación de nodos?
*********************
Te pasaré un script en python para luego pedirte que me ayudes a incorporar nuevas funcionalidades.
Por favor espera el script y tambien las instrucciones.
********************
create_logic_6.0
Necesito que completes la función import_dss, luego del comentario "#Ayuda aqui>>>"
Para importar los transformadores en la capa de transformadores.
********************
por favor reformula la función "import_dss" para simplificarla con la siguiente consigna:
 utilizar las coordenadas de uno solo de sus nodos (nodo1) para asignar a la coordenada de
  la geometría del transformador, y utilizar transformer_name para el atributo id de la capa
   transformador, barra1 para el atributo wdg1_node  y barra2 para el atributo wdg2_node
*******************11/06/24***********
Necesito modificar la función import_dss, para incorporar en la importación, a las cargas 
"loads" desde opendss en la capa de cargas de qgis. Se deben capturar el nombre de la carga en opendss
 para el atributo id en la capa, y el bus1 para el atributo start_node. Además, se debe utilizar 
 las coordenadas del bus1 para asignar a las coordenadas de las geometrias de la capa de cargas.
******************
Necesito modificar la función import_dss, para incorporar en la importación, a los interruptores 
"relay" desde opendss en la capa de interruptores de qgis. Se debe capturar el nombre del relay en opendss
 para asignar al atributo id en la capa, el MonitoredObj para asignar al atributo line, y el monitoredterm
  para asignar al atributo terminal. Además, se debe utilizar la función find_line_by_uuid para obtener un line_feat
que a su vez se pasa a la función find_point_on_line para el switch_point con las coordenadas para crear la geometría. 
*******************
Necesito modificar la función import_dss, para incorporar ahora la importación del circuit o Vsource desde opendss
en la capa estacion_transformadora de qgis. Se debe capturar el nombre vel Vsource en opendss para asignar al 
atributo id en la capa y el bus1 para asignar al atributo start_node. Además, se debe utilizar la función find_node_by_uuid
para obtener un bus1_feature que se utilizará para crear la geometría de la capa de estacion_transformadora.
*******************
Te pasaré dos script en python, el primero crea las geometrias para los elementos eléctricos y el segundo implementa la lógica 
de edición. Luego te pediré que me ayudes a incorporar nuevas funcionalidades.
Por favor espera a que te pase los dos scripts y tambien las instrucciones.
*******************
Puedes listar todos los parámetros o atributos del elemento Line de Opendss?
*******************
Necesito que modifiques el primer script, para incorporar, a la capa de líneas (line_mt_layer), los atributos del elemento Line de Opendss, 
y de esta manera, preparar la estructura de la capa de qgis, para luego importar dichos datos desde opendss.
Me parece conveniente que todos los atributos sean de tipo String, aunque sean atributos numéricos, ya que luego al exportarlos se usaran 
en comandos de texto.
Solo necesitas darme la porción del código a modificar del script.
*******************
Ahora necesito incorporar, a la capa de transformadores (transformer_layer), los atributos del elemento Transformer de Opendss, 
y de esta manera, preparar la estructura de la capa de qgis, para luego importar dichos datos desde opendss.
Me parece conveniente que todos los atributos sean de tipo String, aunque sean atributos numéricos, ya que luego al exportarlos se usaran 
en comandos de texto.
Solo necesitas darme la porción del código a modificar del script.
********************
Ahora necesito incorporar, a la capa de cargas (load_layer), los atributos del elemento Load de Opendss, 
y de esta manera, preparar la estructura de la capa de qgis, para luego importar dichos datos desde opendss.
Me parece conveniente que todos los atributos sean de tipo String, aunque sean atributos numéricos, ya que luego al exportarlos se usaran 
en comandos de texto.
Solo necesitas darme la porción del código a modificar del script.
********************
Ahora necesito incorporar, a la capa de interruptores (switch_layer), los atributos del elemento Relay de Opendss, 
y de esta manera, preparar la estructura de la capa de qgis, para luego importar dichos datos desde opendss.
Me parece conveniente que todos los atributos sean de tipo String, aunque sean atributos numéricos, ya que luego al exportarlos se usaran 
en comandos de texto.
Solo necesitas darme la porción del código a modificar del script.
********************
Ahora necesito incorporar, a la capa de estacion_transformadora (et_layer), los atributos del elemento Vsource de Opendss, 
y de esta manera, preparar la estructura de la capa de qgis, para luego importar dichos datos desde opendss.
Me parece conveniente que todos los atributos sean de tipo String, aunque sean atributos numéricos, ya que luego al exportarlos se usaran 
en comandos de texto.
Solo necesitas darme la porción del código a modificar del script.
********************
Necesito modificar la función import_dss, para incorporar ahora la importación de los parámetros nuevos agregados a las capas de qgis.
Solo necesitas darme la porción del código a modificar del script.
********************
quisiera modificar la simbología de los interruptores para que el color del marcador se establezca a 
green si el atributo "State" = closed y se establezca a red si el atributo "State" = open
********************
create_logic_6.5
Necesito que me ayudes ahora a crear la función export_dss(), para exportar hacia opendss los mismos elementos eléctricos
que se importaron en import_dss(), teniendo en cuenta cuidadosamente la documentación de opendss y la COM interface.
Solo necesitas darme la porción del código a modificar del script.
---> Falló
Necesito que me ayudes ahora a crear la función export_dss(), para exportar hacia opendss los mismos elementos eléctricos
que se importaron en import_dss().
Lo que se requiere hacer es, primeramente abrir un cuadro de dialogo para que el usuario pueda elegir la ubicación y
 crear un archivo de texto, en esta ubuicación llamado "master.dss" con la siguiente estructura:
"
Clear
Redirect Vsource.dss
Redirect LineCode.dss
Redirect Transformer.dss
Redirect Line.dss
Redirect Switch.dss
Redirect Load.dss
Redirect PVSystem.dss
Redirect Voltagebases.dss
solve
LatLongCoords Buscoords.csv
"
Una vez creado el master, se deben crear los archivos .dss de los distintos elementos eléctricos, listados en el master
 en la misma ubicación del archivo master. para la creación de cada archivo se debe ir iterando las distintas capas y recuperando 
 los diferentes parametros para formar el comando script de opendss.

Solo necesitas darme la porción del código a modificar del script.
********************
create_logic_6.6
Necesito ahora, incorporar a la función export_dss, la exportación del archivo Buscoords.csv, con las coordenadas de nodos,
 en el formato que requiere opendss.
 Solo necesitas darme la porción del código a modificar del script.
 ********************
 create_logic_6.7
 Necesito crear una función "clear_all_layers" para borrar todos los elementos de todas las capas de qgis, 
 pero quisiera a su vez que llame recursivamente a otras funciones "clear_xx" donde xx es la capa a borrar.
 O sea que necesito tambien que crees las funciones clear de cada capa. Analiza el código existente para que
 sepas cuales son las capas limpiar, y si necesitas, para mayor seguridad el script de creación, puedo tambien proporcionartelo.
 *******************
create_logic_6.8
Quisiera agregar ahora la funcionalidad de poder editar los atributos de los elementos desde un formulario personalizado,
entonces quisiera en principio que me ayudes a agregar, dentro del manejo de eventos de usuario, al hacer clic derecho, sobre 
un nodo, que abra un menú de opciones, en principio con una sola que diga Editar elemento. Luego te pediré la siguiente funcionalidad.
-> Perfecto, ahora quisiera que al elegir la opción de editar elemento, se abra un formulario, con cuadros de texto
editable, mostrando todos los parámetros del nodo, que son a su vez los atributos de la tabla de nodos, de manera que el usuario 
pueda editarlos. El formulario tambien debe tener en su parte inferior los botones de aceptar (con el cual debe guardar la edición) o cerrar ( para cerrar el formulario)

Ahora, de la misma forma que con los nodos, quisiera agregar la funcionalidad para editar los parámetros de las líneas_mt.

*******************
create_logic_6.9

Quisiera hacer una modificación al código. Antes de abrir el formulario de edición de nodo
se debe 
*****************
create_geometries_3.3
Necesito agregar una capa nueva para el elemento capacitor, siguiento la misma estructura que se usó para las cargas.
Solo necesitas darme el código nuevo.

Quisiera modifiques que intentes construir la simbología para el capacitor, me gustaría que el simbolo represente el típico simbolo de un capacitor conectado a tierra,
puedes intentarlo? 
**********************
create_logic_6.9
Por favor recuerda el código anterior, de creación de la nueva capa de capacitores, ya que ahora te pediré la implementación 
de la lógica de edición, mostrandote el script que implementa la barra de herramientas personalizada y toda la lógica de 
trabajo con capas.
*************************
create_geometries_3.4
Necesito agregar una capa nueva para el elemento generador_solar, siguiento la misma estructura que se usó para los generadores.
Solo necesitas darme el código nuevo.
***************************
create_logic_7.1
Necesito incorporar la lógica de edición para el manejo de los pvsystems, te pasaré el script de creación de capas. El script que estás viendo es la lógica de edición de cada elemento eléctrico,
el nuevo elemento a implementar es el pvsysmem. la lógica de edición es similar a la del generador, sin embargo ten en cuenta todos los parámetros en la capa de pvsystems.
Solo necesitas darme el código nuevo. Espera a que te pase el script de creación de capas por favor.
***************************
create_logic_7.2
necesito agregar a la función "import_dss" la importación de los capacitores desde opendss, a continuación del bucle de importación de cargas.
te enviaré el script de creación de capas, para que tengas a disposición todos los parámetros esperados para la capa. solo debes darme la porción 
de codigo a incorporar. por favos espera a que te pase el código de creación de capas para responder.

Ahora necesito agregar a la función "import_dss" la importación de los generadores y los sistemas fotovoltaicos desde opendss, a continuación del bucle de importación de capacitores.
, ten en cuenta el script de creación de capas y la disposición todos los parámetros esperados para las capas. solo debes darme la porción de 
codigo a incorporar.
***************************
create_logic_7.3
Necesito ahora, incorporar a la función export_dss la exportación de capacitores, pvsystems y generadores
***************************
create_logic_7.4
Necesito que modifiques la función import_dss, para que, al momento de importar los elementos eléctricos, no utilice simplemente
el nombre del elemento como código id para el elemento importado, sinó que los recodifique, de la manera que lo hace la interfaz al 
agregar nuevos elementos desde la barra de edición y generar uuid. Para esto, al momento de la importación se debe guardar en memoria,
una tabla por cada tipo de elemento con las equivalencias entre la nueva codificación y la vieja, de manera de manterner
correctamente la vinculación entre elementos eléctricos.

****
quisiera modificar la funcion import_dss, ahora para dar otra opción a la recodificación de elementos en la cual, los nuevos códigos 
de elementos se generen con un prefijo a elección del usuiario, concatenado con los códigos que traen desde opendss. de esta forma me
 permitirá la importación sucesiva de redes que traen codigos repetidos, ya que el prefijo ayudara a diferenciarse pero concervando los
  nombres de elementos. Por favor proporcioname el código completo de la función sin omitir los comentarios.
****************************
create_logic_7.5
Te proporciono dos scripts, el de creacion de capas, y el de lógica de edición, para que me ayudes a implementar lo siguiente:

Crear un algoritmo que reduzca la cantidad de nodos y lineas presentes en la red eléctrica (Capas: nodos_mt y lineas_mt) teniendo en cuenta que los nodos de paso en líneas deben eliminarse si no se trata de nodos de bifurcación
 o nodos en los cuales hayan conectados otros elementos eléctricos como cargas, capacitores, generadores, pvsystems, setas o transformadores. Si un nodo es de paso, o sea, solo entra una línea y sale otra, y las dos líneas extremo tienen 
el mismo valor para su atributo r1, entonces debe eliminarse el nodo, y fusionar, o sea borrar, las dos lineas que lo atraviesan, creando una sola que conecte los nodos adyacentes, que concerve los atributos de cualquiera de las líneas pero su
atributo lenght se calcule como la suma de ambas lenght.
****
Voy a pedirte que reformules la función reduce_network() te proporcionaré los prompt que estuve usando para su desarrollo y un nuevo prompt con la modificación propuesta. Tienes toda la información del manejo de capas y elementos eléctricos
en los scripts que te proporcione.

prompt original:
Crear un algoritmo que reduzca la cantidad de nodos y lineas presentes en la red eléctrica (Capas: nodos_mt y lineas_mt) teniendo en cuenta que los nodos de paso en líneas deben eliminarse si no se trata de nodos de bifurcación
o nodos en los cuales hayan conectados otros elementos eléctricos como cargas, capacitores, generadores, pvsystems, setas, transformadores o estaciones_transformadoras. Si un nodo es de paso, o sea, solo entra una línea y sale otra, y las dos líneas extremo tienen 
el mismo valor para su atributo r1, entonces debe eliminarse el nodo, y fusionar, o sea borrar, las dos lineas que lo atraviesan, creando una sola que conecte los nodos adyacentes, que concerve los atributos de cualquiera de las líneas pero su
atributo lenght se calcule como la suma de ambas lenght.

Siguiente prompt:
Quisiera que modifiques la función reduce_network() para contemplar lo siguiente: Solo se debe fusionar las líneas adyacentes si ninguna de ellas tiene elementos interruptores (capa: interruptores) asociados.

Siguiente prompt:
Al parecer funciona, pero debes tambien implementar la restricción siguiente: No deben eliminarse nodos, ni sus líneas adyacentes si los mismos están conectados a otros elementos eléctricos, como cargas, capacitores, generadores, pvsystems, setas, transformadores o estaciones_transformadoras.

*****

Quisiera que modifiques la función reduce_network() con la siguiente consigna:
Nodos a eliminar: Los nodos a eliminar deben reunir las siguientes condiciones:
1) Deben conectar solo dos líneas.
2) Quedan excluidos de la eliminación los nodos que conectan a más de dos líneas, o a menos de dos líneas.
3) Quedan excluidos de la eliminación los nodos que contengan cualquiera de los siguientes elementos asociados: generadores, sistemas_fotovoltaicos, cargas, capacitores, transformadores y estaciones_transformadoras.
4) Quedan excluidos de la eliminación los nodos que contengan líneas que a su vez contengan interruptores.

Observa la forma de encontrar elementos asociados que se emplea en la función startNode_Mt_Movement()

*****

Necesito que modifiques la función "reduce_network()", en la parte donde se chequea la conexión a otros elementos eléctricos, 
para su exclusión en la reducción. Observa por favor, que los campos de vinculación hacia
 nodos, de las capas de transformadores y setas, utilizan los atributos "wdg1_node" y "wdg2_node" en lugar de "start_node" y "end_node". 

*****

pensé que habia quedado correcta la función, sin embargo perdió una restricción que tenía inicialmente y debe conservarse, la restricción
 es la siguiente: Solo se pueden fusionar las líneas si poceen igual atributo r1. podrías agregar esta restricción a la versión final?

*********************************
create_logic_7.6
create_geometries_3.6

Necesito crear una función para calcular y cargar datos del resultado de un cálculo de flujo de potencia en opendss
La función debe realizar los siguientes pasos:
1) Crear los archivos dss similarmente a como se realiza en "export_dss()"
2) Utilizar la API de Opendss similarmente a como se utiliza en "import_dss()" para conectarse a la red
generada en el paso anterior para leer los datos de resultados del cálculo, específicamente se necesita completar los atributos 
pu1 en la capa nodos_mt, P.Activa en lineas_mt, y P.Activa y P.Reactiva en la capa de cargas.

*****
-Que forma me sugieres para representar, mediante un estilo inteligente, en la capa de lineas_mt, la P.Activa, para que el grosor de la línea 
cambie en función de dicho atributo?

****
Convierte en positivas antes de asignar al atributo todos los valores de la P.Activa de las lineas_mt
Mejor hazlo al momento de asignar el atributo en en la función calculate_and_load_power_flow_results()

***
Quisiera agregar un botón nuevo a la barra de herramientas para disparar el cálculo de power_flow, por favor dime donde 
hacer las modificaciónes, solo dame el código nuevo.

***
Quisiera que las lineas_mt cambien su grosor en función de su atributo P.Activa

***
Tikets:0014, 015, 001

Comienzo con el desarrollo del plugin

Estoy comenzando a trabajar ahora en el versionamiento y persistencia de las redes eléctricas con que trabaja mi herramienta:
Por un lado debo ...

***
Tiket:003

Actualmente, la herramienta permite almacenar en capas de QGIS a los elementos eléctricos de la red, y los atributos de cada capa se utilizan para almacenar,
 tanto los códigos para las vinculaciones entre elementos (topología), como los parámetros eléctricos, y tambien en algunos elementos como líneas o nodos 
 utilizan atributos de salida, o sea se usan para cargar los resultados de los cálculos eléctricos provenientes de Opendss. Y se configuran
 estilos inteligentes para mostrar en el mapa la información del resultado de esos cálculos. Los atributos correspondientes a los parámetros 
 eléctricos, que utiliza Opendss para realizar cálculos eléctricos son demasiado técnicos, asique quisiera implementar ahora un sistema de biblioteca de elementos,
 por ejemplo, tipos de cable, de transformadores, etc. para lo cual hace falta realizar una modelación de esos atributos utilizando los archivos de modelado
 de elementos de opendss (Line_Code, Load_Shape, T_Shape, Xfrm_Code…etc. )

Entonces la tarea serìa la siguiente:
Tiket:003
Implementar librerías de componentes, (Line_Code, Load_Shape, T_Shape, Xfrm_Code…).
(Incluir capas de parámetros (no gráficas), que modelan librerias, para los siguientes elementos:
    *Loads: Load_Shape
    *PVSystem: T_Shape, Load_Shape, XY_Curve
    *Line: Line_Code, Line_Geometry, Line_Spacing, Wire_Data
    *Transformadores: Xfrm_Code)

Quisiera comenzar con las librerías para líneas:
implementar un sistema de librerias de líneas, para almacenar el tipo de cable (AL_120, AL_185, AL_240, etc.) y luego, al momento de incorporar líneas, el sistema
debe permitir seleccionar una de las librerias disponibles para cargar en la línea, de esta manera, además de los parámetros asociados a la librería, a través de 
opendss se podría obtener los parámetros calculados en base a los existentes. Opendss permite modelar las líneas de diferentes formas, y el problema es implementar
un método que contemple esas diferentes formas.
 Con esta información en mente, te haré algunas preguntas para que puedas guiarme en la implementación:

Quisiera agregar al scrip de creacion de geometrias, unas nuevas capas vectoriales, pero esta vez, deben ser capas no visibles (sin geometría) para guardar los 
objetos: LineCode, LineGeometry, LineSpacing y WireData de OpenDSS. Te comparto la estructura de estos objetos donde puedes ver sus propiedades para que puedas 
crear los atributos de la capa. Todos deben ser del tipo QVariant.String. Además, debe crearse un nuevo grupo llamado "LIB" para contener estas nuevas capas.

linecode: id, b0, b1, basefreq, c0, c1, cmatrix, emergamps, faultrate, kron, like, linetype, neutral, normamps, nphases, pctperm, phases, ratings, r0, r1, rmatrix, seasons, units, x0, x1, xg, xmatrix

linegeometry: id, cncable, cncables, cond, emergamps, h, like, linetype, nconds, normamps, nphases, ratings, reduce, seasons, spacing, tscable, tscables, units, wire, wires, x

linespacing: id, h, like, nconds, nphases, units, x

wiredata: id, capradius, diam, emergamps, gmrac, gmrunits, like, normamps, rac, radius, radunits, ratings, rdc, runits, seasons
******************************
create_logic_7.9, create_geometries_3.7
Necesito incorporar codigo, para leer, primeramente el archivo LineGeometry.dss, el cual se va a encontrar siempre en el mismo 
directorio donde se selecciona el archivo para la importación desde Opendss, que se realiza en la función import_dss, debes insertar
 el código donde está el comentario "Insertar aqui!" Analiza la estructura del archivo LineGeometry.dss par5a que comprendas el formato,
  el mismo sigue la sintactica de los comandos de definición de objetos de Opendss, en este caso se trata de los objetos LineGeometry.
   Si bien Opendss permite variantes en la estructura de sus comandos, nosotros solo vamos a contemplar por el momento, la estructura 
   presente en el archivo que te adjunté. donde la declaración del objeto se realiza en una sola línes, que contiene los distintos 
   parámetros, y los valores deben tomarse siempre como strings para asignarse en los atributos de la capa correspondiente.
******************************
create_logic_8.0
Necesito ahora factorizar el código, especificamente las porciones donde se importan los datos de LineGeometry, LineSpacing y WireData, 
se deben crear funciones a tal fin, para luego poder llamarlas en caso de requerir una importación independiente de dichos elementos.
Como parámetro de las funciones debe especificarse el path al archivo correspondiente.

create_logic_8.1

Necesito modificar la funcion create_line_dss, para que exporte los parámetros con ciertos criterios:
Respecto a los atrubutos de las lineas:

Si ("linecode") es distinto de NULL
Entonces las lineas deben componerse para generar el siguiente formato:
"New Line.conexion_et_bus_1558 bus1=buset bus2=1558 length=1.0 units=m enabled=true phases=3 linecode=Geometria_S120"
Sino:
Si "geometry" es distinto de NULL
Entonces las lineas deben componerse para generar el siguiente formato:
"New Line.conexion_et_bus_1558 Bus1=buset Bus2=1558 Length=1.0 Geometry=Geometria_S120 Units=m"
Sino:
Entonces las lineas deben componerse para generar el siguiente formato:
New Line.conexion_et_bus_1558 bus1=buset bus2=1558 length=1.0 units=m r1=0.000275299 r0=0.000420731 x1=0.000297103 x0=0.00169017 c1=0.012569200000000003 c0=0.0037520900000000005 enabled=true phases=3
*******************************
create_logic_8.4
Actualmente, la herramienta permite crear formularios para la edición de nodos y de líneas, sin embargo, no contempla la posibilidad de que hayan varios elementos en el mismo punto seleccionado (que a su vez implica un área cercana a la coordenada seleccionada). En primer lugar necesito incorporar un código que muestre una lista de elementos que se encuentran en la misma selección, para que el usuario pueda seleccionar cual de ellos quiere editar. Pero se debe a su vez agrupar según el tipo de elementos, por ejemplo nodos, cargas, transformadores, etc. y si hubieran varios poder elegir cual.
La selección se realiza en esta parte del código:

        if estado_nivel_tension == "MT":

            if event.button() == Qt.RightButton:
                print("Right button clicked")

                if estado_flujo_trabajo == "seleccion":

*******************************
create_geometries_3.9
Necesito crear una nueva capa llamada "settings" para almacenar opciones de la red. Quisiera que sigas la misma estructura que se utiliza para las capas no gráficas, por ejemplo con la capa "linecode". En este caso los atributos en principio deben ser los siguientes: "id", "frequency", "voltagebases", "solu_mode". Todos del tipo QVariant.String. Agregar esta capa al grupo LIB.

Quisiera cambiar la forma en que se asigna la simbología a las capas, en lugar de crearlas programáticamente, ya que las tengo guardadas en archivos de estilos .qml, me gustaría, luego de la creación de las capas en el script y asignacion a grupos, quisiera aplicas a las capas dichos estilos que se encuentran dentro de la carpeta "estilos" en la raiz del proyecto. Intentemos inicialmente reemplazar la creacion de estilos para 3 de las capas, luego vamos a extenderlo al resto. Las capas son las siguientes: lineas_mt, nodos_mt y cargas y los archivos respectivos son: lineas_mt.qml, nodos_mt.qml y cargas.qml

Funcionó perfecto. Ahora extendamos el mismo procedimiento de asignación de capas a las siguientes capas: capacitores, estacion_transformadora, generadores, interruptores, lineas_bt, nodos_bt, setas, sistemas_fotovoltaicos y transformadores. Cada capa dispone de un archivo nombre_capa.qml.
********************************
create_logic_8.7
Necesito ayuda para terminar de codificar la función "importar_xycurve", la misma debe procesar archivos que tengan definiciones de objetos XYcurve e incorporarlos a la capa "xycurve_layer", los archivos podrán tener dos tipos posible de definición:
1)"New XYcurve.GFV01E_0100 npts=4 Points=[0.1,0.86 0.2,0.9 0.4,0.93 1.0,0.97]"
2)"New XYcurve.GFV01E_0100 npts=4 csvfile=GFV01E_0100.csv"

En ambos casos se debe extraer la información para rrellenar los atributos correspondientes de la capa "xycurve_layer". En el caso de la segunda definición, se debe leer el archivo especificado en el parámetro "csvfile" el cual puede contener un path o simplemente el nombre del archivo lo que indica que el path es el mismo "file_path" que viene en el argumento de la función. Habiendo leido el archivo csv se debe armar el string para cargar el atributo "Points" con la misma forma en que viene expresado en el tipo 1).

Ahora nocesito ayuda para terminar de codificar la función "importar_tshape", la misma debe procesar archivos que tengan definiciones de objetos TShape e incorporarlos a la capa "tshape_layer", los archivos podrán tener dos tipos posible de definición:
1)"New TShape.GFV01T_0100 npts=24 temp=[0 0 0 0 0 0 0.56068 0.86416 0.88484 0.66832 0.63284 0.97024 1.03216 1.12164 1.44584 1.12136 1.26292 1.25784 1.3238 1.26104 0 0 0 0]"
2)"New TShape.GFV01T_0100 npts=24 csvfile=GFV01T_0100.csv"

En ambos casos se debe extraer la información para rellenar los atributos correspondientes de la capa "tshape_layer". En el caso de la segunda definición, se debe leer el archivo especificado en el parámetro "csvfile" el cual puede contener un path o simplemente el nombre del archivo lo que indica que el path es el mismo "file_path" que viene en el argumento de la función. Habiendo leido el archivo csv se debe armar el string para cargar el atributo "temp" con la misma forma en que viene expresado en el tipo 1).
*****************************
create_logic_8.8
Asi como para las cargas tipo == "Carga":, necesito agregar la lógica para la edición de atributos para los sistemas fotovoltaicos, con el menú de opciones al hacer clic derecho, y editar tambien la función show_edit_form_pv para que incluya, al formulario de atributos, los distintos atributos editables, pero para los atributos: EffCurve, daily y Tdaily, se deben incorporar combos de selección, similarmente a como se hace para el atributo daily en las cargas, que se rellena con los objetos de loadshape. El atributo daily debe cargar su combo, tambien con los objetos loadshape, el atributo EffCurve con los objetos xycurve, y el atributo Tdaily con los objetos tshape. Analiza cuidadosamente el código y la forma de implementación para que sigas la misma lógica que con las cargas.
*****************************
create_logic_8.9
Asi como se exporta hacia el archivo LoadShape.dss, desde la capa loadshape, necesito incorporar la lógica que cree y exporte hacia los archivos: TShape.dss (desde la capa tshape) y XYcurve.dss (desde la capa xycurve).
Debes incorporar la exportación en la función export_dss_fixed_location y en export_dss, y crear las funciones create_tshape_dss y create_xycurva_dss. Analiza detalladamente el código para seguir la misma logica que con LoadShape.dss.
****************************
create_logic_9.0
Necesito agregar un botón más, a la barra de herramientas personalizada, para gestionar a las "Librerías de componentes" en button_names habría que agregar ("Librerias", "Librerías de componentes"), el botón debe ser un menú desplegable, que al presionarlo desplegue una lista con los siguientes elementos: linecode, linegeometry, linespacing, wiredata, loadshape, tshape, xycurve y settings. En cada una de esas opciones del menú, debe haber a su vez dos sub-menús con las opciones "Importar" y "crear"
***************************
create_logic_9.3
En la creacion del archivo Master.dss, que se realiza en la función export_dss_location, y se incluyen comandos de opendss en el texto,
 los cuales invocan a su vez a archivos .dss que luego en la misma función se van a crear. Sin embargo, si las capas de qgis respectivas a cada archivo .dss no pocee elementos
luego la instanciacion de la interfaz de OpenDSS falla por no encontrar algunos archivos invocados en el master. Por lo tanto necesito que, previamente a la creacion individual de los archivos .dss, se creen los mismos de forma vacía
simplemente para que opendss los encuentre, aunque vacíos, y no de error, en el caso de que la capa correspondiente no tuviera dichos objetos.
*****************************
create_logic_9.4
Necesito implementar la funcion importar_loadshape(file_path, loadshape_layer) para importar desde archivo, con el formato y el nombre del archivo adjunto "LoadShape.dss". Con esta importacion se cargan los objetos en la capa loadshape_layer. Si el elemento en el archivo define el parámetro csvfile, se debe leer el archivo csv para tomar los datos y luego armar el arreglo de datos para cargar en el atributo "mult", además de cargar tambien el atributo csvfile con el nombre del archivo. El funcionamiento es similar al implementado, por ejemplo en la función importar_tshape, o importar_xycurve. Dame por favor el código de la función importar_loadshape.
****************************
create_logic_9.5
Necesito agregar una entrada más (al principio), en los submenú de Librerias de componente, en cada uno de los componentes, excepto "settings" para Listar a los objetos (action_type == "list"), que a su vez debe crear un sub-menú que liste los elementos por su nombre (atributo "id" de la capa), y que al seleccionarlo, muestre un formulario de edición, similar al formulario de creación.
****************************
create_logic_9.6
Necesito construir la funcion show_edit_form_transformador, para que muestre un formulario para la edición de los atributos de transformadores (capa transformer_layer). La lógica que debes seguir es similar a la edicion de cargas, solo que en el caso de transformadores, todavía no integramos librerìas para tal elemento por lo tanto la edición de los atributos no necesita a su vez referenciar otras capas, pero sí debe aparecer en el menú las opciones de "Editar atributos", "Eliminar Transformador" y "Cancelar" al igual que con otros elementos, y estas opciones tambien debes implementarlas.
****************************
create_logic_9.7
Perfecto, funciono. Ahora necesito lo mismo, pero para capacitores (capacitor_layer)
****************************
create_logic_9.8
Excelente!, vamos ahora con los generadores.
****************************
create_logic_10.1
Necesito realizar la implementación del munú de manejo de edición interruptores. Ya que este es un elemento que siempre se va a encontrar situado sobre una línea, nunca en una posicion coincidente con nodos, es necesario crear la funcion: "find_nearest_switch_for_editing", siguiendo un funcionamiento similar a las lineas (find_nearest_line_for_editing), sin embargo, una vez encontrado el switch solo se deben presentar 2 opciones en el menú: "Eliminar Interruptor" o "Cancelar"
El código debería insertarse donde coloqué el comentario: "### ATENCIÓN AQUÍ!!! ###" en un bloque "else:" Además tambien proporcioname el código de la funcion: "find_nearest_switch_for_editing"
****************************
create_logic_10.2
Necesito agregar una nueva funcionalidad gráfica: Clonar elementos. Vamos a comenzar con el elemento linea. Necesito agregar una entrada al menú de lineas, luego de la entrada "Editar atributos" y antes de la entrada "Eliminar línea" que diga: "Clonar línea", y que al presionar esta opción setee la variable "self.clonando = TRUE" y guarde el id en la variable " self.cloned_element" para luego poder replicar ciertos atributos de la línea clonada en un nuevo elemento línea. He agregado ya a la clase, las variables siguientes:
self.clonando = False  # Determina si se está clonando un elemento
self.cloned_element = None  # id del elemento a clonar

Perfecto, ya quedó. Ahora necesito que implementes la clonación de la línea, donde coloqué el comentario: ### ATENCIÓN AQUÍ!!! ### se deberían copiar los atributos restantes de la linea clonada a la nueva.
***************************
create_logic_10.4
Similarmente a la lógica implementada para clonar líneas, implementa la lógica para clonar cargas.
Primeramente agreguemos la entrada en el menú de Cargas, entre "Editar atributos" y "Eliminar Carga" que diga: "Clonar Carga", y que al presionar esta opción setee la variable "self.clonando = TRUE" y guarde el id en la variable " self.cloned_element" para luego poder replicar ciertos atributos de la línea clonada en un nuevo elemento Carga, ya que solo un elemento se puede clonar por vez, se pueden reutilizar las variables self.clonando y self.cloned_element para varios elementos.
Revisa cuidadosamente la lógica seguida para clonar líneas ya que la implementación es similar.
******************************
create_logic_10.5
OK, ya agregamos la clonación de líneas, y de cargas, ahora quisiera incorporar la clonación de sistemas fotovoltaicos, capacitores, y generadores. La lógica es similar a la clonación de cargas recien incorporada. Primero se debe agregar la entrada al menú de cada elemento entre editar atributos y eliminar el elemento, utilizando las mismas variables "self.clonando = TRUE" y "self.cloned_element" para luego poder replicar ciertos atributos del nuevo elemento. Tambien, observa que se debe cambiar el cursor, al correspondiente a cada elemento, al momento de seleccionar la opcion de clonar, y luego se deben reestablecer las variables "                    if getattr(self, 'clonando', False) and getattr(self, 'cloned_element', None):
                        self.clonando = False
                        self.cloned_element = None
                        estado_flujo_trabajo = "seleccion"
                        estado_edicion = "Selec_None"
                        iface.mapCanvas().unsetCursor()"

en una nueva clausula "elif estado_flujo_trabajo == "elemento":"
******************************
create_logic_10.6
Estoy analizando la incorporación, en el modelo eléctrico de GeoREID, de las fases de los elementos eléctricos, como líneas, cargas, etc. Debo seguir de la forma más similar posible el modelo de opendss, el mismo utiliza una nomenclatura que se agrega, luego de un "." al código de nodo establecido para el elemento. Mi idea es incorporar esta información "de fases" lo cual me permitirá modelar líneas, cargas y demás elementos como monofasicoa, bifasicos o trifasicos. De esta forma, tanto al importar los elementos desde opendss, necesito recuperar esta informacion y almacenarla en los elementos de las distintas capas, correspondientes para cada elemento eléctrico. Tambien, al crear o incorporar los elementos eléctricos desde la interfaz, tambien debo tener una forma de establecer y guardar esta característica en cada elemento incorporado. De que forma me recomiendas almacenar esta información? Me recomiendas mantenerla en los mismos atributos de nodo? "start_node", "end_node" o crear un nuevo atributo en las capas para tal fin?
****************************
create_geometries_4.2
Quiero que prepares un prompt adecuado, para pasarle al Agent de IA de cursor, para que realice la modificación del script de creación de geometrías para GeoREID (Adjunto). Para que incorpore los campos para la configuración de fases en cada terminal (start_node -> start_phases), (end_node -> end_phases), (wdg1_node -> wdg1_phases), (wdg2_node -> wdg2_phases), siempre el nuevo atributo de fases para el nodo a continuación del atributo para el nodo correspondiente.
****************************
create_logic_10.6
Ahora que ya se crearon los atributos para guardar la información de fases de cada conexión de los elementos eléctricos, quisiera incorporar esta información, en el momento de la importación de cada elemento desde opendss, asique te pido de nuevo un prompt adecuado, para pasarle al Agent de IA de cursor, para que modifique el script create_logic_10.6 (Adjunto) para que extraiga esta información (similarmente a la recomendación que me distes: 
"def split_bus(bus_str):
    parts = bus_str.split('.')
    base = parts[0]
    phases = ''.join(parts[1:]) or '123'   # si no hay sufijo => todas las fases
    return base, phases". Y que almacene en el atributo correspondiente en cada elemento, en los bloques de código de importación desde opendss (import_dss) de cada elemento.
******************************
create_logic_10.6
Ahora que ya se incorporó la información de fases durante la importación desde opendss, ahora quisiera incorporar, durante la exportación hacia opendss (función export_dss_location y funciones internas), esta información en los elementos correspondientes, según la terminología de buses y fases de opendss. Prepara nuevamente un prompt adecuado para pasarle al Agent de IA de cursor, de manera de que realice correctamente esta implementación. Adjunto las ultimas versiones de scripts. 
*************************
create_logic_10.7
(LA LOGICA DE CLONADO LA DEJO PARA LUEGO DE INCORPORAR LA LIBRERÍA XFRMCODE)
Similarmente a la lógica implementada para clonar líneas, necesito incorporar al script create_logic_10.7 la clonación de Transformadores
Primeramente agreguemos la entrada en el menú de Transformador, entre "Editar atributos" y "Eliminar Transformador" que diga: "Clonar Transformador", y que al presionar esta opción setee la variable "self.clonando = TRUE" y guarde el id en la variable " self.cloned_element" para luego poder replicar ciertos atributos del transformador clonado en un nuevo elemento Transformador, ya que solo un elemento se puede clonar por vez, se pueden reutilizar las variables self.clonando y self.cloned_element para varios elementos.
Revisa cuidadosamente la lógica seguida para clonar líneas ya que la implementación es similar.
Necesito que crees un prompt adecuado para pasarle al Agent de IA de cursor, de manera de que realice correctamente esta implementación.
*****************************
Modelación XfrmCode de Transformadores:
1)---
Necesito procesar y remodelar un archivo de declaracion de transformadores siguiendo la sintaxis de Opendss, para expresar algunos de los parámetros en formato de arreglos, ejemplos de la transformación serían:

Actual: "New Transformer.idseta_2 phases=3 wdg=1 bus=632.1.2.3 kv=13.2 kVA=16.0 wdg=2 bus=x_2.1.2.3 kv=0.38 kVA=16.0 %imag=0.5 %loadloss=1.5 %noloadloss=0.25 XHL=2.0 conns=[delta, wye, ] ppm_antifloat=0"
Remodelada: "New Transformer.idseta_2 phases=3 windings=2 XHL=2.0 Buses[632.1.2.3, x_2.1.2.3] conns=[delta, wye] kVs=[13.2, 0.38] kVAs=[16.0, 16.0] %imag=0.5 %loadloss=1.5 %noloadloss=0.25 ppm_antifloat=0"

Actual: "New Transformer.idseta_2983 phases=3 wdg=1 bus=500.1.2.3 kv=13.2 kVA=630.0 wdg=2 bus=busmt_500.1.2.3 kv=33.0 kVA=630.0 %imag=0.5 %loadloss=1.5 %noloadloss=0.25 XHL=2.0 conns=[delta, delta, ] ppm_antifloat=1"
Remodelada: "New Transformer.idseta_2983 phases=3 windings=2 XHL=2.0 Buses[500.1.2.3, busmt_500.1.2.3] conns=[delta, delta] kVs=[13.2, 33.0] kVAs=[630.0, 630.0] %imag=0.5 %loadloss=1.5 %noloadloss=0.25 ppm_antifloat=1"

Actual: "New Transformer.idseta_9999 phases=3 wdg=1 bus=550.1.2.3 kv=33.0 kVA=100.0 wdg=2 bus=busmt_550.1.2.3 kv=13.2 kVA=100.0 %imag=0.5 %loadloss=1.5 %noloadloss=0.25 XHL=2.0 conns=[delta, delta, ] ppm_antifloat=1"
Remodelada: "New Transformer.idseta_9999 phases=3 windings=2 XHL=2.0 Buses[550.1.2.3, busmt_500.1.2.3] conns=[delta, delta] kVs=[33.0, 13.2] kVAs=[100.0, 100.0] %imag=0.5 %loadloss=1.5 %noloadloss=0.25 ppm_antifloat=1"

Podrías darme el archivo procesado completamente (Transformer_processed.dss)? Debes generar la misma cantidad de elementos que en el original.
 2)---

Ahora necesito desagrupar las declaraciones de Transformadores, que se encuentran en un solo archivo Transformer_processed.dss, el cual me brindaste recientemente, modelando los mismos como librerías XfrmCode.dss. Un ejemplo sería:

New Transformer.idseta_2 phases=3 windings=2 XHL=2.0 Buses[632.1.2.3, x_2.1.2.3] conns=[delta, wye] kVs=[13.2, 0.38] kVAs=[16.0, 16.0] %imag=0.5 %loadloss=1.5 %noloadloss=0.25 ppm_antifloat=0

New Transformer.idseta_2 Buses[632.1.2.3, x_2.1.2.3] XfmrCode=SubstationTyp3ph

New XfmrCode.13_03_16_idseta_2 phases=3 windings=2 XHL=2.0 conns=[delta, wye] kVs=[13.2, 0.38] kVAs=[16.0, 16.0] %imag=0.5 %loadloss=1.5 %noloadloss=0.25 ppm_antifloat=0

New "Transformer.XFM_1" Tap=1 Buses=[633.1.2.3, 634.1.2.3] XfmrCode=XFM_1Typ 

**************************************************
create_geometries_4.3
Estoy agregando manualmente, al script de creacion de capas, la creación de una nueva capa "xfrmcode" para guardar las librerías XfmrCode de Opendss. Similarmente a la manera que se manejan las capas para otras librerías tales como LineCode o LoadShapes. Revisa por favor que esté todo correcto con esta nueva capa.

*************************************************
create_logic_10.7
Necesito implementar la funcion importar_xfmrcode(file_path, xfmrcode_layer) dentro del script "create_logic_10.7" para importar desde el archivo "XfrmCode.dss", que contiene declaraciones de objetos xfmrcode con parámetros, los mismos se utilizan para cargar en los atributos correspondientes de la capa. Los parámetros pueden variar en las diferentes declaraciones de objetos xfrmcode, en algunas declaraciones podrían no estar presentes algunos de los parámetros definidos en los atributos de capa xfmrcode_layer, de igual modo deben importarse los parámetros que existan para cargar en el atributo correspondiente de la capa xfmrcode_layer, y los que no existan deben dejarse sin cargar ("null"). El funcionamiento es similar al implementado, por ejemplo en la función importar_linecode.

Ejemplos de las líneas de declaracion que puede contener el archivo "XfrmCode.dss" son los siguientes:

New "XfmrCode.SubstationTyp3ph" phases=3 windings=2 XHL=8 conns=[delta, wye] kVs=[115.0, 4.16] kVAs=[5000.0, 5000.0] %Rs=[0.5, 0.5] XHT=4.0 XLT=4.0 MaxTap=1.1 MinTap=0.9 
New "XfmrCode.XFM_1Typ" phases=3 windings=2 XHL=2 conns=[wye, wye] kVs=[4.16, 0.48] kVAs=[500.0, 500.0] %Rs=[0.55, 0.55] XHT=1.0 XLT=1.0 MaxTap=1.0 MinTap=1.0 
New "XfmrCode.AutoTRF1ph" phases=1 windings=2 XHL=0 conns=[delta, delta] kVs=[2.401777, 2.401777] kVAs=[1667.0, 1667.0] MaxTap=1.1 MinTap=0.9

New "XfmrCode.1000_10_3" phases=3 windings=2 XHL=3 conns=[delta, wye] kVs=[10.0, 0.4] kVAs=[5000, 5000] MaxTap=1.125 MinTap=1.025 
New "XfmrCode.100_10_3" phases=3 windings=2 XHL=3 conns=[delta, wye] kVs=[10.0, 0.4] kVAs=[5000, 5000] MaxTap=1.125 MinTap=1.025 

New "XfmrCode.100_10_3" phases=3 windings=2 XHL=3.6 conns=[delta, wye] kVs=[10.0, 0.4] kVAs=[100.0, 100.0] %Rs=[0.85, 0.85] XHT=1.8 XLT=1.8 MaxTap=1.125 MinTap=1.025 
New "XfmrCode.100_22_9_3" phases=3 windings=2 XHL=3.6 conns=[delta, wye] kVs=[22.9, 0.4] kVAs=[100.0, 100.0] %Rs=[0.85, 0.85] XHT=1.8 XLT=1.8 MaxTap=1.125 MinTap=1.025

New "XfmrCode.10_0_1" phases=1 windings=2 XHL=4.0 conns=[wye, wye] kVs=[10.0, 0.23] kVAs=[10.0, 10.0] MaxTap=1 MinTap=1 
New "XfmrCode.10_0_3" phases=3 windings=2 XHL=4.0 conns=[delta, wye] kVs=[10.0, 0.23] kVAs=[10.0, 10.0] MaxTap=1 MinTap=1 

Observa detenidamente el script de creacion de capas (create_geometries_4.3) para que comprendas la estructura de la capa y crear la lógica de lectura e importación.

Dame por favor el código de la función importar_xfmrcode.
****************************************************************
create_logic_10.8
Ya incorporé la importación de una nueva librería de elementos (xfmrcode), esta vez relacionada a los transformadores. Entonces necesito modificar el formulario "Editar atributos" para transformadores, para que el atributo específico "xfmrcode", el cual debe incluir un combo de selección, el cual debe estar cargado previamente con todas las opciones de objetos xfmrcode desde la capa de librería. Sigue la misma estructura lógica que se utiliza para otros formularios de atributos, como por ejemplo para las cargas, con su atributo daily, que se rellena con la librería loadshape. Dame un prompt adecuado para que el agente de cursor realice estos cambios en el código. Adjunto el script de lógica de edición (create_logic_10.8) y el script de creación de capas (create_geometries_4.3) para que tengas todo el concepto.
Quisiera que agregues alguna instrucción para que el agente, no modifique nada del código anterior, solo la funcionalidad indicada aquí. Ya que en otras ocaciones además de lo pedido modificó cosas diversas.
******************************
create_logic_10.9
Necesito que implementes la función create_xfmrcode_dss, la cual debe crear el archivo XfmrCode.dss tomando como fuente los datos de la capa xfmrcode. Esta capa ya existe y contiene los atributos necesarios.
La lógica debe seguir el patrón usado en la función create_loadshape_dss, es decir:

Para cada feature en la capa xfmrcode, se debe crear una línea con la sintaxis de OpenDSS para New XfmrCode, incluyendo los parámetros disponibles.
Los campos deben exportarse solo si contienen un valor (no nulo ni vacío).
El archivo generado debe llamarse XfmrCode.dss y guardarse en el directorio de salida proporcionado.
Además, en la función export_dss_location, deberás insertar una llamada a create_xfmrcode_dss justo donde aparece el comentario ## (<--- INSERTAR AQUI!!!), asegurándote de pasarle la ruta de salida y la capa xfmrcode.

IMPORTANTE: No modifiques ninguna otra parte del código, solo agrega la función create_xfmrcode_dss y la línea de invocación correspondiente en export_dss_location.

Los archivos fuente que contienen el contexto relevante son:

create_logic_10.9.py: allí se encuentra export_dss_location y las demás funciones de exportación.
La capa xfmrcode está definida en el script externo y tiene atributos como: phases, windings, kvs, kvas, conns, %rs, xhl, xht, xlt, maxtap, mintap, %loadloss, %nloadloss, ppm_afloat, %imag.
Asegúrate de respetar el formato OpenDSS en la generación del archivo, siguiendo el estilo de las otras funciones de exportación ya existentes.
******************************
create_logic_11.0
Quisiera implementar la siguiente funcionalidad:
Agrega una nueva entrada de menú para la librería xfmrcode dentro del grupo de gestión de librerías de componentes, que ya incluye "linecode", "linegeometry", "linespacing", "wiredata", "loadshape", "tshape", "xycurve" y "settings".
✅ La nueva entrada debe ubicarse justo antes de "settings" y llamarse exactamente "xfmrcode".
✅ Esta nueva entrada debe contener los siguientes submenús, con el mismo comportamiento que los de las demás librerías:
"Listar"
"Importar"
"Exportar"
"Crear"
✅ Para el submenú "Importar" de esta librería, debe reutilizarse la función ya implementada importar_xfmrcode, tal como se hace con las demás librerías (ej. importar_linecode, importar_loadshape, etc.).
✅ Para el submenú "Exportar" de esta librería, debe reutilizarse la función ya implementada create_xfmrcode_dss, tal como se hace con las demás librerías (ej. create_linecode_dss, create_loadshape_dss, etc.).
📌 Asegúrate de seguir exactamente la misma estructura y estilo que las otras entradas del menú de librerías.
🔒 No modificar ninguna otra parte del código que no esté directamente relacionada con esta funcionalidad.
No renombres ni edites funciones existentes.
No alteres la estructura general de otros menús o librerías.
🧭 El menú "xfmrcode" debe integrarse en la barra de herramientas dentro del mismo grupo visual de librerías ("LIB").
Adjunto los scrips de creacion de capas y el de lógica de edición, revisalos cuidadosamente para comprender la lógica.
*******************************
create_logic_11.2
Similarmente a la lógica implementada para clonar otros elementos como líneas ó cargas. Necesito incorporar la lógica para clonar a los transformadores.
Primeramente se debe agregar la entrada en el menú de Transformadores, entre "Editar atributos" y "Eliminar Transformador" que diga: "Clonar Transformador", y que al presionar esta opción setee la variable "self.clonando = TRUE" y guarde el id en la variable " self.cloned_element" para luego poder replicar ciertos atributos del Transformador clonado en un nuevo elemento Transformador, ya que solo un elemento se puede clonar por vez, se pueden reutilizar las variables self.clonando y self.cloned_element para varios elementos.
Revisa cuidadosamente la lógica seguida para clonar líneas ya que la implementación es similar.
Necesito que crees un prompt adecuado para que el agente de cursor pueda implementar los cambios en mi script. Adjunto el script de creación de capas y el script de lógica de edición para tu referencia.
******************************
create_logic_11.4
Necesito quitar del código, todo el manejo de "BT" (Baja tensión), ya que no vamos a hacer distinción durante la edición de la red, por el motivo de que Opendss, tampoco hace esta distinción. Entonces quisiera quitar todo el código para el manejo de la lógica de edición de capas de baja tensión (nodos_bt y Lineas_bt). Pero con mucho cuidado de no afectar el funcionamiento de edición de media tensión "MT". Podrías indicarme paso a paso los puntos del programa que crees que debo ir retirando? Quisiera comenzar con el código del script de edición (create_logic_11.4) y luego continuar por retirar la creacion de las capas de BT del script de creacion de capas (create_geometries_4.4). Adjuntaré ambos archivos. Podrías guiarme paso a paso?
*****************************
create_logic_11.7
Necesito modificar la acción del botón de la caja de herramientas que actualmente llama al cálculo de flujo "PowerFlow", el mismo, ahora debe desplegar una lista en la cual, la primer entrada sea la misma llamada que realiza ahora el botón ("Calcular flujo de potencia Instantáneo"), que llama a la función power_flow con el argumento Modo = "SNAPSHOT", pero que agregue una segunda entrada para poder invocar a la función power_flow con el argumento Modo ="HOURLY". Posteriormente se agregarán más entradas a esta lista para futuros cálculos. Dame un promt adecuado para que el agente de cursor pueda realizar estos cambios en mi script.
*****************************
create_logic_11.8
Necesito Agregar un nuevo botón a la barra de herramientas "OpenREiD", para el manejo de la visualización: botón: "visualizar", que debe colocarse a continuación del botón "Calcular". El nuevo botón debe desplegar un combo tipo lista de selección con las siguientes opciones: "Flujo de potencia" y "Niveles de Tensión" (La selección debe ser excluyente, o sea, solo una puede estar activa). Además se sebe crear una acción diferente para cada seleccion en la cual se reasignarán nuevos estilos a las capas, (los estilos serán cargados desde archivos diferentes en cada caso) Los estilos se asignan desde archivo por ejemplo de la siguiente forma:

Para "Flujo de potencia":

line_layer.loadNamedStyle(project_path + '/estilos/lineas_1.qml')
node_layer.loadNamedStyle(project_path + '/estilos/nodos_1.qml')
load_layer.loadNamedStyle(project_path + '/estilos/cargas_1.qml')

Para "Niveles de Tensión":

line_layer.loadNamedStyle(project_path + '/estilos/lineas_2.qml')
node_layer.loadNamedStyle(project_path + '/estilos/nodos_2.qml')
load_layer.loadNamedStyle(project_path + '/estilos/cargas_2.qml')

Crea el prompt necesario para pasarle al agente de cursor (Ahora tambien dispone del modelo Gpt5) para que el mismo haga los cambios en mi código. Adjunto los dos script que contienen toda la lógica de mi herramienta. 
************************************
create_logic_12.5
(TRUNCADA)

Las acciones detalladas serían:

Nueva (Red):
Tomar un template.greid (zip) embebido en el plugin o en una carpeta de recursos.
Descomprimir en GeoREID/temp/ (si existe, primero borrarlo de forma segura).
Abrir red.qgz desde temp/.
Setear current_doc_path = None y is_dirty = False.

Abrir:
Diálogo de archivo → seleccionar *.greid.
Validar que sea ZIP y que tenga manifest.json y el project_file.
...